[Format]      =  1
[Precision]   =  1e-008
[Frequency]   =  1
[MinAngle]    =  5
[DoSmartMesh] =  1
[Depth]       =  0.0014
[LengthUnits] =  inches
[ProblemType] =  planar
[Coordinates] =  cartesian
[Comment]     =  "Add comments here."
[PointProps]   = 0
[BdryProps]   = 0
[BlockProps]  = 2
  <BeginBlock>
    <BlockName> = "AIR"
    <ox> = 0
    <oy> = 0
    <ex> = 1
    <ey> = 1
    <ltx> = 0
    <lty> = 0
  <EndBlock>
  <BeginBlock>
    <BlockName> = "COPPER"
    <ox> = 59600000
    <oy> = 59600000
    <ex> = 1
    <ey> = 1
    <ltx> = 0
    <lty> = 0
  <EndBlock>
[ConductorProps]  = 2
  <BeginConductor>
    <ConductorName> = "I_VDD"
    <vcr> = 0
    <vci> = 0
    <qcr> = 1.5
    <qci> = 0
    <ConductorType> = 0
  <EndConductor>
  <BeginConductor>
    <ConductorName> = "GND"
    <vcr> = 0
    <vci> = 0
    <qcr> = 0
    <qci> = 0
    <ConductorType> = 1
  <EndConductor>
[NumPoints] = 4201
-0.30748999999999999	-0.52478000000000002	0	0	0
-0.31023000000000017	-0.52248000000000006	0	0	0
-0.31092000000000031	-0.52115	0	0	0
-0.31093000000000032	-0.52098	0	0	0
-0.31093000000000032	-0.47734999999999989	0	0	0
-0.31035000000000013	-0.47595999999999988	0	0	0
-0.31023000000000017	-0.47585000000000011	0	0	0
-0.3093000000000003	-0.4750700000000001	0	0	0
-0.30748999999999999	-0.47355000000000008	0	0	0
-0.30537000000000031	-0.46988000000000008	0	0	0
-0.30463000000000029	-0.4657	0	0	0
-0.30537000000000031	-0.46153	0	0	0
-0.30748999999999999	-0.45785999999999988	0	0	0
-0.31023000000000017	-0.45555000000000012	0	0	0
-0.31092000000000031	-0.45422000000000012	0	0	0
-0.31093000000000032	-0.45405000000000012	0	0	0
-0.31093000000000032	-0.44169000000000008	0	0	0
-0.31035000000000013	-0.44030999999999998	0	0	0
-0.30897000000000041	-0.43973000000000001	0	0	0
-0.30758000000000008	-0.44030999999999998	0	0	0
-0.30727000000000032	-0.44070999999999988	0	0	0
-0.30650000000000022	-0.44205000000000011	0	0	0
-0.30325000000000019	-0.44477000000000011	0	0	0
-0.29927000000000031	-0.44622000000000012	0	0	0
-0.29503000000000013	-0.44622000000000012	0	0	0
-0.2910500000000002	-0.44477000000000011	0	0	0
-0.28780000000000022	-0.44205000000000011	0	0	0
-0.2856800000000001	-0.43837999999999999	0	0	0
-0.28494000000000008	-0.43420000000000009	0	0	0
-0.2856800000000001	-0.43003000000000008	0	0	0
-0.28780000000000022	-0.42636000000000007	0	0	0
-0.2910500000000002	-0.42363000000000001	0	0	0
-0.29503000000000013	-0.42219000000000012	0	0	0
-0.29927000000000031	-0.42219000000000012	0	0	0
-0.30325000000000019	-0.42363000000000001	0	0	0
-0.30650000000000022	-0.42636000000000007	0	0	0
-0.30658000000000019	-0.42650999999999989	0	0	0
-0.30727000000000032	-0.42770000000000002	0	0	0
-0.30846000000000012	-0.42860999999999988	0	0	0
-0.30995000000000011	-0.42841000000000001	0	0	0
-0.3108600000000003	-0.42722000000000021	0	0	0
-0.31093000000000032	-0.42671999999999999	0	0	0
-0.31093000000000032	-0.32791000000000009	0	0	0
-0.38574000000000008	-0.32791000000000009	0	0	0
-0.38713000000000042	-0.32733000000000012	0	0	0
-0.3877000000000001	-0.32594000000000012	0	0	0
-0.3877000000000001	-0.025739999999999701	0	0	0
-0.49991000000000019	-0.025739999999999701	0	0	0
-0.50130000000000008	-0.025169999999999901	0	0	0
-0.50187000000000026	-0.023779999999999701	0	0	0
-0.50187000000000026	0.16619000000000009	0	0	0
-0.55306000000000033	0.16619000000000009	0	0	0
-0.55445000000000011	0.16676000000000021	0	0	0
-0.55502000000000029	0.16814999999999999	0	0	0
-0.55502000000000007	0.26100000000000001	0	0	0
-0.60600000000000009	0.26100000000000001	0	0	0
-0.60620000000000007	0.46343000000000012	0	0	0
-0.60620000000000007	0.49493000000000031	0	0	0
-0.60620000000000007	0.60124	0	0	0
-0.60563000000000011	0.60262000000000016	0	0	0
-0.60424000000000011	0.60319999999999996	0	0	0
-0.17904	0.60319999999999996	0	0	0
-0.17904	0.66620000000000013	0	0	0
-0.1784700000000003	0.66758000000000028	0	0	0
-0.1770800000000001	0.66816000000000009	0	0	0
-0.082370000000000096	0.66816000000000009	0	0	0
-0.080990000000000298	0.66758000000000028	0	0	0
-0.080409999999999995	0.66620000000000013	0	0	0
-0.080990000000000298	0.66481000000000035	0	0	0
-0.081110000000000099	0.66470000000000007	0	0	0
-0.084059999999999899	0.66222000000000025	0	0	0
-0.086180000000000104	0.65855000000000019	0	0	0
-0.086910000000000001	0.65437999999999996	0	0	0
-0.086180000000000104	0.65020000000000011	0	0	0
-0.084059999999999899	0.64653000000000005	0	0	0
-0.080810000000000007	0.64380999999999999	0	0	0
-0.076830000000000107	0.64236000000000026	0	0	0
-0.072590000000000293	0.64236000000000026	0	0	0
-0.068610000000000101	0.64380999999999999	0	0	0
-0.065360000000000001	0.64653000000000005	0	0	0
-0.063240000000000393	0.65020000000000011	0	0	0
-0.062499999999999903	0.65437999999999996	0	0	0
-0.063240000000000393	0.65855000000000019	0	0	0
-0.065360000000000001	0.66222000000000025	0	0	0
-0.068300000000000194	0.66469	0	0	0
-0.069000000000000297	0.66603000000000034	0	0	0
-0.068550000000000097	0.66745999999999994	0	0	0
-0.067220000000000196	0.66815000000000002	0	0	0
-0.067040000000000294	0.66816000000000009	0	0	0
-0.0508800000000003	0.66816000000000009	0	0	0
-0.049489999999999902	0.66758000000000028	0	0	0
-0.048920000000000199	0.66620000000000013	0	0	0
-0.049489999999999902	0.66481000000000035	0	0	0
-0.0496199999999999	0.66470000000000007	0	0	0
-0.0525600000000001	0.66222000000000025	0	0	0
-0.054680000000000201	0.65855000000000019	0	0	0
-0.055420000000000198	0.65437999999999996	0	0	0
-0.054680000000000201	0.65020000000000011	0	0	0
-0.0525600000000001	0.64653000000000005	0	0	0
-0.049320000000000301	0.64380999999999999	0	0	0
-0.045330000000000301	0.64236000000000026	0	0	0
-0.041090000000000002	0.64236000000000026	0	0	0
-0.037110000000000101	0.64380999999999999	0	0	0
-0.033860000000000098	0.64653000000000005	0	0	0
-0.031739999999999997	0.65020000000000011	0	0	0
-0.0310100000000001	0.65437999999999996	0	0	0
-0.031739999999999997	0.65855000000000019	0	0	0
-0.033860000000000098	0.66222000000000025	0	0	0
-0.036810000000000002	0.66469	0	0	0
-0.037499999999999999	0.66603000000000034	0	0	0
-0.037050000000000201	0.66745999999999994	0	0	0
-0.0357200000000003	0.66815000000000002	0	0	0
-0.035550000000000102	0.66816000000000009	0	0	0
-0.0193800000000003	0.66816000000000009	0	0	0
-0.0179900000000001	0.66758000000000028	0	0	0
-0.0174200000000003	0.66620000000000013	0	0	0
-0.0179900000000001	0.66481000000000035	0	0	0
-0.018120000000000001	0.66470000000000007	0	0	0
-0.0210700000000003	0.66222000000000025	0	0	0
-0.023189999999999999	0.65855000000000019	0	0	0
-0.023920000000000299	0.65437999999999996	0	0	0
-0.023189999999999999	0.65020000000000011	0	0	0
-0.0210700000000003	0.64653000000000005	0	0	0
-0.017820000000000301	0.64380999999999999	0	0	0
-0.01384	0.64236000000000026	0	0	0
-0.0096000000000002004	0.64236000000000026	0	0	0
-0.0056100000000001999	0.64380999999999999	0	0	0
-0.0023700000000002998	0.64653000000000005	0	0	0
-0.0002500000000003	0.65020000000000011	0	0	0
0.00048999999999969999	0.65437999999999996	0	0	0
-0.0002500000000003	0.65855000000000019	0	0	0
-0.0023700000000002998	0.66222000000000025	0	0	0
-0.0053100000000001002	0.66469	0	0	0
-0.0060100000000002001	0.66603000000000034	0	0	0
-0.0055500000000003004	0.66745999999999994	0	0	0
-0.0042200000000001004	0.66815000000000002	0	0	0
-0.0040500000000002001	0.66816000000000009	0	0	0
0.012120000000000001	0.66816000000000009	0	0	0
0.0134999999999997	0.66758000000000028	0	0	0
0.014080000000000001	0.66620000000000013	0	0	0
0.0134999999999997	0.66481000000000035	0	0	0
0.0133799999999998	0.66470000000000007	0	0	0
0.010429999999999899	0.66222000000000025	0	0	0
0.0083099999999999008	0.65855000000000019	0	0	0
0.0075699999999998997	0.65437999999999996	0	0	0
0.0083099999999999008	0.65020000000000011	0	0	0
0.010429999999999899	0.64653000000000005	0	0	0
0.013679999999999999	0.64380999999999999	0	0	0
0.017659999999999801	0.64236000000000026	0	0	0
0.0218999999999996	0.64236000000000026	0	0	0
0.02588	0.64380999999999999	0	0	0
0.02913	0.64653000000000005	0	0	0
0.031250000000000097	0.65020000000000011	0	0	0
0.031980000000000001	0.65437999999999996	0	0	0
0.031250000000000097	0.65855000000000019	0	0	0
0.02913	0.66222000000000025	0	0	0
0.026179999999999599	0.66469	0	0	0
0.0254899999999997	0.66603000000000034	0	0	0
0.025939999999999901	0.66745999999999994	0	0	0
0.027269999999999801	0.66815000000000002	0	0	0
0.027439999999999999	0.66816000000000009	0	0	0
0.043609999999999802	0.66816000000000009	0	0	0
0.044999999999999998	0.66758000000000028	0	0	0
0.045569999999999798	0.66620000000000013	0	0	0
0.044999999999999998	0.66481000000000035	0	0	0
0.044870000000000097	0.66470000000000007	0	0	0
0.041929999999999898	0.66222000000000025	0	0	0
0.039809999999999797	0.65855000000000019	0	0	0
0.039069999999999799	0.65437999999999996	0	0	0
0.039809999999999797	0.65020000000000011	0	0	0
0.041929999999999898	0.64653000000000005	0	0	0
0.045169999999999801	0.64380999999999999	0	0	0
0.0491599999999996	0.64236000000000026	0	0	0
0.053399999999999899	0.64236000000000026	0	0	0
0.057379999999999903	0.64380999999999999	0	0	0
0.060629999999999698	0.64653000000000005	0	0	0
0.062739999999999893	0.65020000000000011	0	0	0
0.0634799999999998	0.65437999999999996	0	0	0
0.062739999999999893	0.65855000000000019	0	0	0
0.060629999999999698	0.66222000000000025	0	0	0
0.057680000000000002	0.66469	0	0	0
0.056989999999999999	0.66603000000000034	0	0	0
0.057439999999999797	0.66745999999999994	0	0	0
0.058770000000000003	0.66815000000000002	0	0	0
0.058939999999999902	0.66816000000000009	0	0	0
0.2008899999999999	0.66816000000000009	0	0	0
0.20227999999999971	0.66758000000000028	0	0	0
0.20284999999999981	0.66620000000000013	0	0	0
0.20284999999999981	0.6228800000000001	0	0	0
0.22639999999999999	0.6228800000000001	0	0	0
0.2277899999999998	0.62231000000000036	0	0	0
0.22832999999999981	0.62126000000000015	0	0	0
0.22878000000000009	0.61871000000000032	0	0	0
0.23089999999999969	0.61504000000000025	0	0	0
0.23414999999999969	0.61231000000000013	0	0	0
0.23813000000000001	0.61085999999999996	0	0	0
0.24236999999999981	0.61085999999999996	0	0	0
0.24634999999999971	0.61231000000000013	0	0	0
0.24959999999999971	0.61504000000000025	0	0	0
0.25171999999999978	0.61871000000000032	0	0	0
0.25217000000000012	0.62126000000000015	0	0	0
0.25298000000000009	0.62253000000000003	0	0	0
0.25409999999999988	0.6228800000000001	0	0	0
0.25993999999999978	0.6228800000000001	0	0	0
0.26132999999999967	0.62231000000000036	0	0	0
0.26190999999999998	0.62092000000000014	0	0	0
0.26190999999999998	0.5717000000000001	0	0	0
0.32097000000000009	0.5717000000000001	0	0	0
0.32234999999999969	0.57113000000000036	0	0	0
0.32292999999999988	0.56974000000000014	0	0	0
0.32292999999999988	0.54020000000000024	0	0	0
0.39773999999999982	0.54020000000000024	0	0	0
0.39912999999999998	0.53963000000000005	0	0	0
0.39969999999999978	0.53824000000000027	0	0	0
0.39969999999999978	0.47938000000000008	0	0	0
0.39912999999999998	0.47799999999999998	0	0	0
0.39773999999999982	0.47742000000000018	0	0	0
0.39560999999999968	0.47742000000000018	0	0	0
0.39162999999999981	0.47596999999999989	0	0	0
0.38837999999999978	0.47324999999999989	0	0	0
0.38625999999999971	0.46958000000000027	0	0	0
0.38552999999999982	0.46539999999999998	0	0	0
0.38625999999999971	0.46123000000000031	0	0	0
0.38837999999999978	0.45756000000000019	0	0	0
0.39162999999999981	0.45483000000000012	0	0	0
0.39560999999999968	0.45338000000000028	0	0	0
0.39773999999999982	0.45338000000000028	0	0	0
0.39912999999999998	0.45281000000000021	0	0	0
0.39969999999999978	0.45142000000000038	0	0	0
0.39969999999999978	0.44789000000000029	0	0	0
0.39912999999999998	0.44650000000000017	0	0	0
0.39773999999999982	0.44592999999999988	0	0	0
0.39560999999999968	0.44592999999999988	0	0	0
0.39162999999999981	0.44448000000000032	0	0	0
0.38837999999999978	0.44174999999999998	0	0	0
0.38625999999999971	0.43808000000000008	0	0	0
0.38552999999999982	0.43391000000000018	0	0	0
0.38625999999999971	0.42972999999999989	0	0	0
0.38837999999999978	0.42606000000000038	0	0	0
0.39162999999999981	0.42334000000000033	0	0	0
0.39560999999999968	0.42188999999999999	0	0	0
0.39773999999999982	0.42188999999999999	0	0	0
0.39912999999999998	0.42131000000000018	0	0	0
0.39969999999999978	0.41993000000000008	0	0	0
0.39969999999999978	0.41638999999999998	0	0	0
0.39912999999999998	0.41500000000000031	0	0	0
0.39773999999999982	0.41443000000000008	0	0	0
0.39560999999999968	0.41443000000000008	0	0	0
0.39162999999999981	0.41298000000000029	0	0	0
0.38837999999999978	0.41025000000000028	0	0	0
0.38625999999999971	0.40658000000000022	0	0	0
0.38552999999999982	0.40241000000000038	0	0	0
0.38625999999999971	0.39824000000000009	0	0	0
0.38837999999999978	0.39456000000000008	0	0	0
0.39162999999999981	0.39184000000000002	0	0	0
0.39560999999999968	0.39039000000000018	0	0	0
0.39773999999999982	0.39039000000000018	0	0	0
0.39912999999999998	0.38982000000000011	0	0	0
0.39969999999999978	0.38843000000000028	0	0	0
0.39969999999999978	0.38489000000000018	0	0	0
0.39912999999999998	0.38351000000000007	0	0	0
0.39773999999999982	0.38293000000000033	0	0	0
0.39560999999999968	0.38293000000000033	0	0	0
0.39162999999999981	0.38147999999999999	0	0	0
0.38837999999999978	0.37875999999999987	0	0	0
0.38625999999999971	0.37509000000000042	0	0	0
0.38552999999999982	0.37091000000000007	0	0	0
0.38625999999999971	0.36674000000000018	0	0	0
0.38837999999999978	0.36307000000000028	0	0	0
0.39162999999999981	0.36033999999999999	0	0	0
0.39560999999999968	0.35889000000000038	0	0	0
0.39773999999999982	0.35889000000000038	0	0	0
0.39912999999999998	0.35832000000000008	0	0	0
0.39969999999999978	0.35693000000000003	0	0	0
0.39969999999999978	0.13705000000000009	0	0	0
0.39969999999999978	-0.51917999999999997	0	0	0
0.39912999999999998	-0.52056999999999998	0	0	0
0.39840999999999982	-0.52102000000000004	0	0	0
0.39556999999999981	-0.52205999999999997	0	0	0
0.39231999999999989	-0.52478000000000002	0	0	0
0.39019999999999971	-0.52846000000000015	0	0	0
0.38945999999999981	-0.53262999999999994	0	0	0
0.39019999999999971	-0.53679999999999994	0	0	0
0.39231999999999989	-0.54048000000000007	0	0	0
0.39556999999999981	-0.54320000000000013	0	0	0
0.39840999999999982	-0.54422999999999999	0	0	0
0.39951999999999999	-0.54525000000000001	0	0	0
0.39969999999999978	-0.54608000000000012	0	0	0
0.39969999999999978	-0.55265000000000009	0	0	0
0.39912999999999998	-0.55403000000000002	0	0	0
0.39840999999999982	-0.55449000000000015	0	0	0
0.39556999999999981	-0.55552000000000001	0	0	0
0.39231999999999989	-0.55825000000000014	0	0	0
0.39019999999999971	-0.56191999999999998	0	0	0
0.38945999999999981	-0.56608999999999998	0	0	0
0.39019999999999971	-0.57027000000000005	0	0	0
0.39063999999999999	-0.57103000000000015	0	0	0
0.39082999999999979	-0.57252000000000014	0	0	0
0.38991999999999971	-0.57370999999999994	0	0	0
0.38893999999999979	-0.57397000000000009	0	0	0
0.37502999999999981	-0.57397000000000009	0	0	0
0.37364000000000008	-0.57339000000000007	0	0	0
0.37306999999999979	-0.57200999999999902	0	0	0
0.37332999999999977	-0.57103000000000015	0	0	0
0.37376999999999999	-0.57027000000000005	0	0	0
0.37449999999999989	-0.56608999999999998	0	0	0
0.37376999999999999	-0.56191999999999998	0	0	0
0.37164999999999992	-0.55825000000000014	0	0	0
0.36839999999999978	-0.55552000000000001	0	0	0
0.36442000000000008	-0.55407000000000006	0	0	0
0.36017999999999978	-0.55407000000000006	0	0	0
0.35619999999999991	-0.55552000000000001	0	0	0
0.35294999999999999	-0.55825000000000014	0	0	0
0.35082999999999981	-0.56191999999999998	0	0	0
0.35008999999999979	-0.56608999999999998	0	0	0
0.35082999999999981	-0.57027000000000005	0	0	0
0.35127000000000008	-0.57103000000000015	0	0	0
0.35145999999999999	-0.57252000000000014	0	0	0
0.35054999999999981	-0.57370999999999994	0	0	0
0.34956999999999988	-0.57397000000000009	0	0	0
0.34549999999999997	-0.57397000000000009	0	0	0
0.34410999999999969	-0.57339000000000007	0	0	0
0.34354000000000001	-0.57200999999999902	0	0	0
0.34379999999999999	-0.57103000000000015	0	0	0
0.34423999999999971	-0.57027000000000005	0	0	0
0.34497999999999968	-0.56608999999999998	0	0	0
0.34423999999999971	-0.56191999999999998	0	0	0
0.34212000000000009	-0.55825000000000014	0	0	0
0.33887000000000012	-0.55552000000000001	0	0	0
0.3348899999999998	-0.55407000000000006	0	0	0
0.33065	-0.55407000000000006	0	0	0
0.32666999999999968	-0.55552000000000001	0	0	0
0.32341999999999971	-0.55825000000000014	0	0	0
0.32129999999999997	-0.56191999999999998	0	0	0
0.32056999999999969	-0.56608999999999998	0	0	0
0.32129999999999997	-0.57027000000000005	0	0	0
0.32173999999999969	-0.57103000000000015	0	0	0
0.32193999999999978	-0.57252000000000014	0	0	0
0.32101999999999992	-0.57370999999999994	0	0	0
0.32003999999999971	-0.57397000000000009	0	0	0
0.28644999999999998	-0.57397000000000009	0	0	0
0.28505999999999959	-0.57339000000000007	0	0	0
0.28447999999999979	-0.57200999999999902	0	0	0
0.28474999999999978	-0.57103000000000015	0	0	0
0.28518999999999972	-0.57027000000000005	0	0	0
0.28592000000000001	-0.56608999999999998	0	0	0
0.28518999999999972	-0.56191999999999998	0	0	0
0.28306999999999988	-0.55825000000000014	0	0	0
0.27982000000000001	-0.55552000000000001	0	0	0
0.27583999999999959	-0.55407000000000006	0	0	0
0.27159999999999979	-0.55407000000000006	0	0	0
0.26761000000000001	-0.55552000000000001	0	0	0
0.2643700000000001	-0.55825000000000014	0	0	0
0.26224999999999998	-0.56191999999999998	0	0	0
0.26151000000000002	-0.56608999999999998	0	0	0
0.26224999999999998	-0.57027000000000005	0	0	0
0.26268999999999959	-0.57103000000000015	0	0	0
0.26288000000000011	-0.57252000000000014	0	0	0
0.26196999999999993	-0.57370999999999994	0	0	0
0.26098999999999972	-0.57397000000000009	0	0	0
0.22738999999999979	-0.57397000000000009	0	0	0
0.22600000000000009	-0.57339000000000007	0	0	0
0.22542999999999991	-0.57200999999999902	0	0	0
0.22568999999999981	-0.57103000000000015	0	0	0
0.22613	-0.57027000000000005	0	0	0
0.22686999999999999	-0.56608999999999998	0	0	0
0.22613	-0.56191999999999998	0	0	0
0.2240099999999999	-0.55825000000000014	0	0	0
0.2207599999999999	-0.55552000000000001	0	0	0
0.21678000000000011	-0.55407000000000006	0	0	0
0.21253999999999981	-0.55407000000000006	0	0	0
0.20855999999999991	-0.55552000000000001	0	0	0
0.20530999999999999	-0.55825000000000014	0	0	0
0.20318999999999979	-0.56191999999999998	0	0	0
0.20246	-0.56608999999999998	0	0	0
0.20318999999999979	-0.57027000000000005	0	0	0
0.20363000000000009	-0.57103000000000015	0	0	0
0.20383000000000001	-0.57252000000000014	0	0	0
0.20290999999999981	-0.57370999999999994	0	0	0
0.20193	-0.57397000000000009	0	0	0
0.1683399999999998	-0.57397000000000009	0	0	0
0.16694999999999999	-0.57339000000000007	0	0	0
0.1663699999999998	-0.57200999999999902	0	0	0
0.16663999999999979	-0.57103000000000015	0	0	0
0.16708000000000001	-0.57027000000000005	0	0	0
0.1678099999999999	-0.56608999999999998	0	0	0
0.16708000000000001	-0.56191999999999998	0	0	0
0.16495999999999991	-0.55825000000000014	0	0	0
0.16170999999999991	-0.55552000000000001	0	0	0
0.15773000000000001	-0.55407000000000006	0	0	0
0.15348999999999979	-0.55407000000000006	0	0	0
0.14949999999999969	-0.55552000000000001	0	0	0
0.14625999999999989	-0.55825000000000014	0	0	0
0.1441399999999998	-0.56191999999999998	0	0	0
0.14339999999999969	-0.56608999999999998	0	0	0
0.1441399999999998	-0.57027000000000005	0	0	0
0.14457999999999999	-0.57103000000000015	0	0	0
0.14476999999999979	-0.57252000000000014	0	0	0
0.14385999999999971	-0.57370999999999994	0	0	0
0.14288000000000001	-0.57397000000000009	0	0	0
0.1092799999999997	-0.57397000000000009	0	0	0
0.1078899999999999	-0.57339000000000007	0	0	0
0.10731999999999969	-0.57200999999999902	0	0	0
0.1075799999999997	-0.57103000000000015	0	0	0
0.10801999999999989	-0.57027000000000005	0	0	0
0.1087599999999997	-0.56608999999999998	0	0	0
0.10801999999999989	-0.56191999999999998	0	0	0
0.1058999999999997	-0.55825000000000014	0	0	0
0.1026499999999997	-0.55552000000000001	0	0	0
0.098669999999999897	-0.55407000000000006	0	0	0
0.094429999999999695	-0.55407000000000006	0	0	0
0.090449999999999794	-0.55552000000000001	0	0	0
0.087199999999999805	-0.55825000000000014	0	0	0
0.085079999999999698	-0.56191999999999998	0	0	0
0.0843499999999998	-0.56608999999999998	0	0	0
0.085079999999999698	-0.57027000000000005	0	0	0
0.085519999999999902	-0.57103000000000015	0	0	0
0.085719999999999894	-0.57252000000000014	0	0	0
0.0848	-0.57370999999999994	0	0	0
0.083819999999999797	-0.57397000000000009	0	0	0
0.069909999999999806	-0.57397000000000009	0	0	0
0.068519999999999998	-0.57339000000000007	0	0	0
0.067949999999999802	-0.57200999999999902	0	0	0
0.068209999999999701	-0.57103000000000015	0	0	0
0.068650000000000003	-0.57027000000000005	0	0	0
0.069389999999999799	-0.56608999999999998	0	0	0
0.068650000000000003	-0.56191999999999998	0	0	0
0.066529999999999798	-0.55825000000000014	0	0	0
0.063279999999999906	-0.55552000000000001	0	0	0
0.059299999999999999	-0.55407000000000006	0	0	0
0.055059999999999797	-0.55407000000000006	0	0	0
0.051079999999999799	-0.55552000000000001	0	0	0
0.0478299999999999	-0.55825000000000014	0	0	0
0.045709999999999799	-0.56191999999999998	0	0	0
0.044979999999999902	-0.56608999999999998	0	0	0
0.045709999999999799	-0.57027000000000005	0	0	0
0.046149999999999997	-0.57103000000000015	0	0	0
0.046349999999999898	-0.57252000000000014	0	0	0
0.0454299999999997	-0.57370999999999994	0	0	0
0.044450000000000003	-0.57397000000000009	0	0	0
-0.0088300000000000999	-0.57397000000000009	0	0	0
-0.0102200000000003	-0.57339000000000007	0	0	0
-0.010789999999999999	-0.57200999999999902	0	0	0
-0.010530000000000201	-0.57103000000000015	0	0	0
-0.0100900000000003	-0.57027000000000005	0	0	0
-0.0093500000000003997	-0.56608999999999998	0	0	0
-0.0100900000000003	-0.56191999999999998	0	0	0
-0.012210000000000099	-0.55825000000000014	0	0	0
-0.015459999999999899	-0.55552000000000001	0	0	0
-0.019440000000000301	-0.55407000000000006	0	0	0
-0.0236800000000001	-0.55407000000000006	0	0	0
-0.0276599999999999	-0.55552000000000001	0	0	0
-0.030910000000000298	-0.55825000000000014	0	0	0
-0.033030000000000101	-0.56191999999999998	0	0	0
-0.033759999999999998	-0.56608999999999998	0	0	0
-0.033030000000000101	-0.57027000000000005	0	0	0
-0.032590000000000299	-0.57103000000000015	0	0	0
-0.0323900000000003	-0.57252000000000014	0	0	0
-0.033310000000000103	-0.57370999999999994	0	0	0
-0.034290000000000299	-0.57397000000000009	0	0	0
-0.048199999999999903	-0.57397000000000009	0	0	0
-0.049590000000000203	-0.57339000000000007	0	0	0
-0.050160000000000302	-0.57200999999999902	0	0	0
-0.049900000000000097	-0.57103000000000015	0	0	0
-0.049460000000000198	-0.57027000000000005	0	0	0
-0.048720000000000201	-0.56608999999999998	0	0	0
-0.049460000000000198	-0.56191999999999998	0	0	0
-0.051580000000000299	-0.55825000000000014	0	0	0
-0.054830000000000302	-0.55552000000000001	0	0	0
-0.0588100000000003	-0.55407000000000006	0	0	0
-0.063050000000000106	-0.55407000000000006	0	0	0
-0.067030000000000298	-0.55552000000000001	0	0	0
-0.070280000000000301	-0.55825000000000014	0	0	0
-0.072399999999999895	-0.56191999999999998	0	0	0
-0.073130000000000306	-0.56608999999999998	0	0	0
-0.072399999999999895	-0.57027000000000005	0	0	0
-0.071960000000000204	-0.57103000000000015	0	0	0
-0.071760000000000199	-0.57252000000000014	0	0	0
-0.072679999999999995	-0.57370999999999994	0	0	0
-0.073660000000000198	-0.57397000000000009	0	0	0
-0.0875700000000003	-0.57397000000000009	0	0	0
-0.088960000000000206	-0.57339000000000007	0	0	0
-0.089530000000000207	-0.57200999999999902	0	0	0
-0.089270000000000294	-0.57103000000000015	0	0	0
-0.088830000000000103	-0.57027000000000005	0	0	0
-0.088090000000000099	-0.56608999999999998	0	0	0
-0.088830000000000103	-0.56191999999999998	0	0	0
-0.090950000000000294	-0.55825000000000014	0	0	0
-0.0942000000000002	-0.55552000000000001	0	0	0
-0.098180000000000198	-0.55407000000000006	0	0	0
-0.1024200000000003	-0.55407000000000006	0	0	0
-0.1064000000000002	-0.55552000000000001	0	0	0
-0.10965000000000021	-0.55825000000000014	0	0	0
-0.1117700000000003	-0.56191999999999998	0	0	0
-0.1125000000000002	-0.56608999999999998	0	0	0
-0.1117700000000003	-0.57027000000000005	0	0	0
-0.1113300000000001	-0.57103000000000015	0	0	0
-0.1111300000000001	-0.57252000000000014	0	0	0
-0.1120500000000004	-0.57370999999999994	0	0	0
-0.1130300000000001	-0.57397000000000009	0	0	0
-0.12694000000000019	-0.57397000000000009	0	0	0
-0.12833	-0.57339000000000007	0	0	0
-0.12890000000000021	-0.57200999999999902	0	0	0
-0.12864000000000031	-0.57103000000000015	0	0	0
-0.12820000000000001	-0.57027000000000005	0	0	0
-0.1274600000000001	-0.56608999999999998	0	0	0
-0.12820000000000001	-0.56191999999999998	0	0	0
-0.13032000000000021	-0.55825000000000014	0	0	0
-0.13357000000000011	-0.55552000000000001	0	0	0
-0.13755000000000001	-0.55407000000000006	0	0	0
-0.14179000000000019	-0.55407000000000006	0	0	0
-0.14577000000000009	-0.55552000000000001	0	0	0
-0.1490200000000001	-0.55825000000000014	0	0	0
-0.15114000000000019	-0.56191999999999998	0	0	0
-0.15187000000000009	-0.56608999999999998	0	0	0
-0.15114000000000019	-0.57027000000000005	0	0	0
-0.1507	-0.57103000000000015	0	0	0
-0.15049999999999999	-0.57252000000000014	0	0	0
-0.1514200000000003	-0.57370999999999994	0	0	0
-0.15240000000000001	-0.57397000000000009	0	0	0
-0.1663100000000001	-0.57397000000000009	0	0	0
-0.16770000000000029	-0.57339000000000007	0	0	0
-0.16827000000000009	-0.57200999999999902	0	0	0
-0.16801000000000019	-0.57103000000000015	0	0	0
-0.16756999999999991	-0.57027000000000005	0	0	0
-0.16683000000000001	-0.56608999999999998	0	0	0
-0.16756999999999991	-0.56191999999999998	0	0	0
-0.16969000000000009	-0.55825000000000014	0	0	0
-0.17294000000000001	-0.55552000000000001	0	0	0
-0.17692000000000041	-0.55407000000000006	0	0	0
-0.18116000000000021	-0.55407000000000006	0	0	0
-0.18514	-0.55552000000000001	0	0	0
-0.18839	-0.55825000000000014	0	0	0
-0.1905100000000001	-0.56191999999999998	0	0	0
-0.19123999999999999	-0.56608999999999998	0	0	0
-0.1905100000000001	-0.57027000000000005	0	0	0
-0.19007000000000029	-0.57103000000000015	0	0	0
-0.1898700000000004	-0.57252000000000014	0	0	0
-0.19079000000000021	-0.57370999999999994	0	0	0
-0.19176999999999991	-0.57397000000000009	0	0	0
-0.20568	-0.57397000000000009	0	0	0
-0.20707000000000031	-0.57339000000000007	0	0	0
-0.20763999999999999	-0.57200999999999902	0	0	0
-0.20738000000000009	-0.57103000000000015	0	0	0
-0.20694000000000029	-0.57027000000000005	0	0	0
-0.2062000000000003	-0.56608999999999998	0	0	0
-0.20694000000000029	-0.56191999999999998	0	0	0
-0.20906	-0.55825000000000014	0	0	0
-0.21230999999999989	-0.55552000000000001	0	0	0
-0.21629000000000029	-0.55407000000000006	0	0	0
-0.22053000000000009	-0.55407000000000006	0	0	0
-0.2245100000000004	-0.55552000000000001	0	0	0
-0.22776000000000041	-0.55825000000000014	0	0	0
-0.22988	-0.56191999999999998	0	0	0
-0.2306100000000004	-0.56608999999999998	0	0	0
-0.22988	-0.57027000000000005	0	0	0
-0.22944000000000031	-0.57103000000000015	0	0	0
-0.2292400000000003	-0.57252000000000014	0	0	0
-0.23016000000000009	-0.57370999999999994	0	0	0
-0.23114000000000029	-0.57397000000000009	0	0	0
-0.24505000000000041	-0.57397000000000009	0	0	0
-0.24644000000000019	-0.57339000000000007	0	0	0
-0.24701000000000031	-0.57200999999999902	0	0	0
-0.24675	-0.57103000000000015	0	0	0
-0.2463100000000002	-0.57027000000000005	0	0	0
-0.2455700000000002	-0.56608999999999998	0	0	0
-0.2463100000000002	-0.56191999999999998	0	0	0
-0.24843000000000029	-0.55825000000000014	0	0	0
-0.25168000000000029	-0.55552000000000001	0	0	0
-0.25566000000000022	-0.55407000000000006	0	0	0
-0.25990000000000002	-0.55407000000000006	0	0	0
-0.26388000000000028	-0.55552000000000001	0	0	0
-0.26713000000000031	-0.55825000000000014	0	0	0
-0.26925000000000038	-0.56191999999999998	0	0	0
-0.26998000000000028	-0.56608999999999998	0	0	0
-0.26925000000000038	-0.57027000000000005	0	0	0
-0.26881000000000022	-0.57103000000000015	0	0	0
-0.26861000000000018	-0.57252000000000014	0	0	0
-0.26952999999999999	-0.57370999999999994	0	0	0
-0.27051000000000019	-0.57397000000000009	0	0	0
-0.28442000000000028	-0.57397000000000009	0	0	0
-0.28581000000000012	-0.57339000000000007	0	0	0
-0.28638000000000019	-0.57200999999999902	0	0	0
-0.28612000000000032	-0.57103000000000015	0	0	0
-0.2856800000000001	-0.57027000000000005	0	0	0
-0.28494000000000008	-0.56608999999999998	0	0	0
-0.2856800000000001	-0.56191999999999998	0	0	0
-0.28780000000000022	-0.55825000000000014	0	0	0
-0.2910500000000002	-0.55552000000000001	0	0	0
-0.29503000000000013	-0.55407000000000006	0	0	0
-0.29927000000000031	-0.55407000000000006	0	0	0
-0.30325000000000019	-0.55552000000000001	0	0	0
-0.30650000000000022	-0.55825000000000014	0	0	0
-0.30658000000000019	-0.55840000000000001	0	0	0
-0.30727000000000032	-0.55959000000000003	0	0	0
-0.30846000000000012	-0.5605	0	0	0
-0.30995000000000011	-0.56030000000000002	0	0	0
-0.3108600000000003	-0.55911	0	0	0
-0.31093000000000032	-0.55859999999999999	0	0	0
-0.31093000000000032	-0.5442800000000001	0	0	0
-0.31035000000000013	-0.54289000000000009	0	0	0
-0.31023000000000017	-0.54278000000000004	0	0	0
-0.30761999999999989	-0.54059000000000013	0	0	0
-0.30748999999999999	-0.54048000000000007	0	0	0
-0.30537000000000031	-0.53679999999999994	0	0	0
-0.30463000000000029	-0.53262999999999994	0	0	0
-0.30537000000000031	-0.52846000000000015	0	0	0
0.35294999999999999	-0.54048000000000007	0	0	0
0.35619999999999991	-0.54320000000000013	0	0	0
0.36017999999999978	-0.54465000000000008	0	0	0
0.36442000000000008	-0.54465000000000008	0	0	0
0.36839999999999978	-0.54320000000000013	0	0	0
0.37164999999999992	-0.54048000000000007	0	0	0
0.37376999999999999	-0.53679999999999994	0	0	0
0.37449999999999989	-0.53262999999999994	0	0	0
0.37376999999999999	-0.52846000000000015	0	0	0
0.37164999999999992	-0.52478000000000002	0	0	0
0.36839999999999978	-0.52205999999999997	0	0	0
0.36442000000000008	-0.52061000000000002	0	0	0
0.36017999999999978	-0.52061000000000002	0	0	0
0.35619999999999991	-0.52205999999999997	0	0	0
0.35294999999999999	-0.52478000000000002	0	0	0
0.35082999999999981	-0.52846000000000015	0	0	0
0.35008999999999979	-0.53262999999999994	0	0	0