[Format]      =  1
[Precision]   =  1e-008
[Frequency]   =  1
[MinAngle]    =  5
[DoSmartMesh] =  1
[Depth]       =  0.0014
[LengthUnits] =  inches
[ProblemType] =  planar
[Coordinates] =  cartesian
[Comment]     =  "Add comments here."
[PointProps]   = 0
[BdryProps]   = 1
  <BeginBdry>
    <BdryName> = "VDD_CORE"
    <BdryType> = 0
    <vsr> = 1.3500000000000001
    <vsi> = 0
    <qsr> = 0
    <qsi> = 0
    <c0r>  = 0
    <c0i>  = 0
    <c1r>  = 0
    <c1i>  = 0
  <EndBdry>
[BlockProps]  = 2
  <BeginBlock>
    <BlockName> = "AIR"
    <ox> = 0
    <oy> = 0
    <ex> = 1
    <ey> = 1
    <ltx> = 0
    <lty> = 0
  <EndBlock>
  <BeginBlock>
    <BlockName> = "COPPER"
    <ox> = 59600000
    <oy> = 59600000
    <ex> = 1
    <ey> = 1
    <ltx> = 0
    <lty> = 0
  <EndBlock>
[ConductorProps]  = 2
  <BeginConductor>
    <ConductorName> = "I_CORE"
    <vcr> = 1.3500000000000001
    <vci> = 0
    <qcr> = 1.5
    <qci> = 0
    <ConductorType> = 0
  <EndConductor>
  <BeginConductor>
    <ConductorName> = "GND"
    <vcr> = 0
    <vci> = 0
    <qcr> = 0
    <qci> = 0
    <ConductorType> = 1
  <EndConductor>
[NumPoints] = 2932
0.27493999999999991	-0.28927999999999982	0	0	0
0.27367000000000002	-0.28881999999999991	0	0	0
0.27348999999999968	-0.28865999999999969	0	0	0
0.2733499999999997	-0.28854999999999992	0	0	0
0.26936999999999978	-0.28709999999999969	0	0	0
0.26512999999999998	-0.28709999999999969	0	0	0
0.26114999999999972	-0.28854999999999992	0	0	0
0.26101999999999981	-0.28865999999999969	0	0	0
0.26082999999999978	-0.28881999999999991	0	0	0
0.25957000000000002	-0.28927999999999982	0	0	0
0.24164999999999989	-0.28927999999999982	0	0	0
0.24026999999999971	-0.28870000000000001	0	0	0
0.2396899999999999	-0.28730999999999968	0	0	0
0.2396899999999999	-0.2439999999999998	0	0	0
0.21698999999999999	-0.2439999999999998	0	0	0
0.21559999999999971	-0.24342999999999959	0	0	0
0.21503	-0.24203999999999981	0	0	0
0.2152899999999999	-0.24105999999999961	0	0	0
0.2157299999999997	-0.24030000000000001	0	0	0
0.21646000000000001	-0.23612999999999981	0	0	0
0.2157299999999997	-0.23194999999999991	0	0	0
0.21360999999999999	-0.22827999999999979	0	0	0
0.21035999999999999	-0.22555999999999979	0	0	0
0.2063799999999997	-0.22410999999999959	0	0	0
0.2021399999999999	-0.22410999999999959	0	0	0
0.19816000000000011	-0.22555999999999979	0	0	0
0.19491000000000011	-0.22827999999999979	0	0	0
0.19278999999999999	-0.23194999999999991	0	0	0
0.19205	-0.23612999999999981	0	0	0
0.19278999999999999	-0.24030000000000001	0	0	0
0.19322999999999971	-0.24105999999999961	0	0	0
0.19341999999999959	-0.2425499999999996	0	0	0
0.1925099999999999	-0.2437399999999999	0	0	0
0.1915299999999997	-0.2439999999999998	0	0	0
0.15399999999999989	-0.2439999999999998	0	0	0
0.15261000000000011	-0.24342999999999959	0	0	0
0.1520399999999999	-0.24203999999999981	0	0	0
0.1522999999999998	-0.24105999999999961	0	0	0
0.15273999999999999	-0.24030000000000001	0	0	0
0.15346999999999991	-0.23612999999999981	0	0	0
0.15273999999999999	-0.23194999999999991	0	0	0
0.15061999999999989	-0.22827999999999979	0	0	0
0.14736999999999989	-0.22555999999999979	0	0	0
0.1433900000000001	-0.22410999999999959	0	0	0
0.1391499999999998	-0.22410999999999959	0	0	0
0.13517000000000001	-0.22555999999999979	0	0	0
0.13192000000000001	-0.22827999999999979	0	0	0
0.12979999999999989	-0.23194999999999991	0	0	0
0.1290599999999999	-0.23612999999999981	0	0	0
0.12979999999999989	-0.24030000000000001	0	0	0
0.13024000000000011	-0.24105999999999961	0	0	0
0.13042999999999999	-0.2425499999999996	0	0	0
0.1295199999999998	-0.2437399999999999	0	0	0
0.12853999999999999	-0.2439999999999998	0	0	0
-0.084410000000000193	-0.2439999999999998	0	0	0
-0.085790000000000297	-0.24342999999999959	0	0	0
-0.086370000000000099	-0.24203999999999981	0	0	0
-0.086339999999999903	-0.2416999999999998	0	0	0
-0.085729999999999904	-0.23825999999999989	0	0	0
-0.085700000000000207	-0.23808999999999969	0	0	0
-0.0864400000000001	-0.23391999999999991	0	0	0
-0.088560000000000194	-0.2302499999999999	0	0	0
-0.091800000000000201	-0.22751999999999981	0	0	0
-0.095790000000000097	-0.22606999999999999	0	0	0
-0.1000200000000003	-0.22606999999999999	0	0	0
-0.1040100000000002	-0.22751999999999981	0	0	0
-0.1072600000000002	-0.2302499999999999	0	0	0
-0.1093700000000002	-0.23391999999999991	0	0	0
-0.11011000000000019	-0.23808999999999969	0	0	0
-0.11008	-0.23825999999999989	0	0	0
-0.10948000000000011	-0.2416999999999998	0	0	0
-0.10979999999999999	-0.2431599999999996	0	0	0
-0.11107000000000029	-0.2439699999999996	0	0	0
-0.1114100000000003	-0.2439999999999998	0	0	0
-0.16188000000000011	-0.2439999999999998	0	0	0
-0.16188000000000011	-0.30699999999999988	0	0	0
-0.1624600000000003	-0.30838999999999972	0	0	0
-0.16384000000000001	-0.3089599999999999	0	0	0
-0.35541000000000011	-0.3089599999999999	0	0	0
-0.35679000000000022	-0.30838999999999972	0	0	0
-0.35737000000000002	-0.30699999999999988	0	0	0
-0.35711000000000009	-0.30601999999999968	0	0	0
-0.3556200000000001	-0.30343999999999971	0	0	0
-0.35553000000000001	-0.30328999999999962	0	0	0
-0.35478999999999999	-0.29911999999999977	0	0	0
-0.35553000000000001	-0.29493999999999998	0	0	0
-0.35765000000000008	-0.29126999999999992	0	0	0
-0.36090000000000011	-0.28854999999999992	0	0	0
-0.36487999999999993	-0.28709999999999969	0	0	0
-0.36912000000000023	-0.28709999999999969	0	0	0
-0.37309999999999999	-0.28854999999999992	0	0	0
-0.37635000000000002	-0.29126999999999992	0	0	0
-0.37847000000000008	-0.29493999999999998	0	0	0
-0.3792100000000001	-0.29911999999999977	0	0	0
-0.37847000000000008	-0.30328999999999962	0	0	0
-0.37837999999999999	-0.30343999999999971	0	0	0
-0.37689	-0.30601999999999968	0	0	0
-0.37670000000000009	-0.30750999999999967	0	0	0
-0.37761000000000028	-0.30869999999999997	0	0	0
-0.37858999999999998	-0.3089599999999999	0	0	0
-0.63826999999999989	-0.3089599999999999	0	0	0
-0.63965000000000005	-0.30838999999999972	0	0	0
-0.6402300000000003	-0.30699999999999988	0	0	0
-0.6402300000000003	-0.22824999999999959	0	0	0
-0.6402300000000003	-0.1928199999999998	0	0	0
-0.6402300000000003	-0.11801	0	0	0
-0.63965000000000005	-0.11661999999999979	0	0	0
-0.63826999999999989	-0.11605	0	0	0
-0.53983000000000025	-0.11605	0	0	0
-0.53983000000000025	0.019790000000000401	0	0	0
-0.53926000000000007	0.021170000000000098	0	0	0
-0.53787000000000029	0.021750000000000401	0	0	0
-0.43354000000000031	0.021750000000000401	0	0	0
-0.43354000000000031	0.31900000000000039	0	0	0
-0.43296000000000012	0.32039000000000017	0	0	0
-0.43157000000000029	0.32096000000000041	0	0	0
-0.39417000000000002	0.32096000000000041	0	0	0
-0.055579999999999997	0.32096000000000041	0	0	0
0.42482999999999999	0.32096000000000041	0	0	0
0.42621999999999982	0.32039000000000017	0	0	0
0.42678999999999989	0.31900000000000039	0	0	0
0.42674999999999969	-0.0016699999999999001	0	0	0
0.42617999999999989	-0.0030599999999995999	0	0	0
0.42478999999999972	-0.0036299999999998001	0	0	0
0.42260999999999971	-0.0036299999999998001	0	0	0
0.41862999999999978	-0.0050800000000000003	0	0	0
0.4153799999999998	-0.0078099999999997	0	0	0
0.41325999999999968	-0.011479999999999701	0	0	0
0.41252999999999979	-0.015650000000000001	0	0	0
0.41325999999999968	-0.019829999999999799	0	0	0
0.4153799999999998	-0.023499999999999899	0	0	0
0.41862999999999978	-0.0262199999999999	0	0	0
0.42260999999999971	-0.027669999999999698	0	0	0
0.42478999999999972	-0.027669999999999698	0	0	0
0.42616999999999988	-0.0282499999999999	0	0	0
0.42674999999999969	-0.029629999999999601	0	0	0
0.42674999999999969	-0.0331699999999997	0	0	0
0.42616999999999988	-0.03456	0	0	0
0.42477999999999971	-0.035129999999999703	0	0	0
0.42260999999999971	-0.035129999999999703	0	0	0
0.41862999999999978	-0.036579999999999897	0	0	0
0.4153799999999998	-0.039299999999999898	0	0	0
0.41325999999999968	-0.042979999999999602	0	0	0
0.41252999999999979	-0.047149999999999803	0	0	0
0.41325999999999968	-0.051319999999999602	0	0	0
0.4153799999999998	-0.054989999999999699	0	0	0
0.41862999999999978	-0.057719999999999799	0	0	0
0.42260999999999971	-0.05917	0	0	0
0.42477999999999971	-0.05917	0	0	0
0.42616999999999988	-0.059739999999999703	0	0	0
0.42674000000000012	-0.0611299999999999	0	0	0
0.42671999999999988	-0.20030999999999999	0	0	0
0.42670999999999992	-0.34045999999999982	0	0	0
0.4266999999999998	-0.3699899999999996	0	0	0
0.42613000000000012	-0.37137999999999982	0	0	0
0.42473999999999978	-0.37194999999999961	0	0	0
0.39322999999999991	-0.37194999999999961	0	0	0
0.36173000000000011	-0.37194999999999961	0	0	0
0.36034999999999989	-0.37137999999999982	0	0	0
0.35976999999999959	-0.3699899999999996	0	0	0
0.35976999999999959	-0.34045999999999982	0	0	0
0.30070999999999998	-0.34045999999999982	0	0	0
0.29931999999999981	-0.33988000000000002	0	0	0
0.29875000000000002	-0.3384999999999998	0	0	0
0.29875000000000002	-0.28927999999999982	0	0	0
0.38389000000000001	-0.30695999999999968	0	0	0
0.38712999999999992	-0.3096899999999998	0	0	0
0.39111999999999991	-0.31114000000000003	0	0	0
0.39535999999999971	-0.31114000000000003	0	0	0
0.39933999999999997	-0.3096899999999998	0	0	0
0.40258999999999989	-0.30695999999999968	0	0	0
0.40471000000000013	-0.30328999999999962	0	0	0
0.40544000000000002	-0.29911999999999977	0	0	0
0.40471000000000013	-0.29493999999999998	0	0	0
0.40258999999999989	-0.29126999999999992	0	0	0
0.39933999999999997	-0.28854999999999992	0	0	0
0.39535999999999971	-0.28709999999999969	0	0	0
0.39111999999999991	-0.28709999999999969	0	0	0
0.38712999999999992	-0.28854999999999992	0	0	0
0.38389000000000001	-0.29126999999999992	0	0	0
0.38176999999999989	-0.29493999999999998	0	0	0
0.38102999999999992	-0.29911999999999977	0	0	0
0.38176999999999989	-0.30328999999999962	0	0	0
-0.37635000000000002	-0.2361	0	0	0
-0.37309999999999999	-0.23881999999999959	0	0	0
-0.36912000000000023	-0.24026999999999979	0	0	0
-0.36487999999999993	-0.24026999999999979	0	0	0
-0.36090000000000011	-0.23881999999999959	0	0	0
-0.35765000000000008	-0.2361	0	0	0
-0.35553000000000001	-0.23242999999999989	0	0	0
-0.35478999999999999	-0.22824999999999959	0	0	0
-0.35553000000000001	-0.22407999999999989	0	0	0
-0.35765000000000008	-0.2204099999999998	0	0	0
-0.36090000000000011	-0.21767999999999971	0	0	0
-0.36487999999999993	-0.21623000000000001	0	0	0
-0.36912000000000023	-0.21623000000000001	0	0	0
-0.37309999999999999	-0.21767999999999971	0	0	0
-0.37635000000000002	-0.2204099999999998	0	0	0
-0.37847000000000008	-0.22407999999999989	0	0	0
-0.3792100000000001	-0.22824999999999959	0	0	0
-0.37847000000000008	-0.23242999999999989	0	0	0
0.1004199999999997	-0.21247999999999981	0	0	0
0.10366999999999971	-0.21519999999999989	0	0	0
0.10765	-0.21664999999999959	0	0	0
0.1118899999999998	-0.21664999999999959	0	0	0
0.1158700000000001	-0.21519999999999989	0	0	0
0.1191200000000001	-0.21247999999999981	0	0	0
0.1212399999999997	-0.20879999999999971	0	0	0
0.1219799999999997	-0.2046299999999999	0	0	0
0.1212399999999997	-0.20045999999999969	0	0	0
0.1191200000000001	-0.19678000000000001	0	0	0
0.1158700000000001	-0.1940599999999999	0	0	0
0.1118899999999998	-0.19260999999999981	0	0	0
0.10765	-0.19260999999999981	0	0	0
0.10366999999999971	-0.1940599999999999	0	0	0
0.1004199999999997	-0.19678000000000001	0	0	0
0.098299999999999998	-0.20045999999999969	0	0	0
0.097569999999999699	-0.2046299999999999	0	0	0
0.098299999999999998	-0.20879999999999971	0	0	0
0.38389000000000001	-0.18097999999999989	0	0	0
0.38712999999999992	-0.1837	0	0	0
0.39111999999999991	-0.1851499999999997	0	0	0
0.39535999999999971	-0.1851499999999997	0	0	0
0.39933999999999997	-0.1837	0	0	0
0.40258999999999989	-0.18097999999999989	0	0	0
0.40471000000000013	-0.17730999999999991	0	0	0
0.40544000000000002	-0.17312999999999959	0	0	0
0.40471000000000013	-0.1689599999999998	0	0	0
0.40258999999999989	-0.16528999999999969	0	0	0
0.39933999999999997	-0.16255999999999959	0	0	0
0.39535999999999971	-0.16110999999999989	0	0	0
0.39111999999999991	-0.16110999999999989	0	0	0
0.38712999999999992	-0.16255999999999959	0	0	0
0.38389000000000001	-0.16528999999999969	0	0	0
0.38176999999999989	-0.1689599999999998	0	0	0
0.38102999999999992	-0.17312999999999959	0	0	0
0.38176999999999989	-0.17730999999999991	0	0	0
0.33958999999999978	-0.29126999999999992	0	0	0
0.33634999999999993	-0.28854999999999992	0	0	0
0.33235999999999988	-0.28709999999999969	0	0	0
0.32811999999999969	-0.28709999999999969	0	0	0
0.32413999999999982	-0.28854999999999992	0	0	0
0.32088999999999979	-0.29126999999999992	0	0	0
0.31877999999999979	-0.29493999999999998	0	0	0
0.31803999999999982	-0.29911999999999977	0	0	0
0.31877999999999979	-0.30328999999999962	0	0	0
0.32088999999999979	-0.30695999999999968	0	0	0
0.32413999999999982	-0.3096899999999998	0	0	0
0.32811999999999969	-0.31114000000000003	0	0	0
0.33235999999999988	-0.31114000000000003	0	0	0
0.33634999999999993	-0.3096899999999998	0	0	0
0.33958999999999978	-0.30695999999999968	0	0	0
0.3417099999999999	-0.30328999999999962	0	0	0
0.34244999999999992	-0.29911999999999977	0	0	0
0.3417099999999999	-0.29493999999999998	0	0	0
-0.37635000000000002	-0.27546999999999988	0	0	0
-0.37309999999999999	-0.27818999999999988	0	0	0
-0.36912000000000023	-0.27963999999999972	0	0	0
-0.36487999999999993	-0.27963999999999972	0	0	0
-0.36090000000000011	-0.27818999999999988	0	0	0
-0.35765000000000008	-0.27546999999999988	0	0	0
-0.35553000000000001	-0.27179999999999982	0	0	0
-0.35478999999999999	-0.26762000000000002	0	0	0
-0.35553000000000001	-0.26344999999999968	0	0	0
-0.35765000000000008	-0.25977999999999968	0	0	0
-0.36090000000000011	-0.25704999999999961	0	0	0
-0.36487999999999993	-0.25559999999999983	0	0	0
-0.36912000000000023	-0.25559999999999983	0	0	0
-0.37309999999999999	-0.25704999999999961	0	0	0
-0.37635000000000002	-0.25977999999999968	0	0	0
-0.37847000000000008	-0.26344999999999968	0	0	0
-0.3792100000000001	-0.26762000000000002	0	0	0
-0.37847000000000008	-0.27179999999999982	0	0	0
0.38389000000000001	-0.2439699999999996	0	0	0
0.38712999999999992	-0.2466999999999997	0	0	0
0.39111999999999991	-0.2481499999999999	0	0	0
0.39535999999999971	-0.2481499999999999	0	0	0
0.39933999999999997	-0.2466999999999997	0	0	0
0.40258999999999989	-0.2439699999999996	0	0	0
0.40471000000000013	-0.24030000000000001	0	0	0
0.40544000000000002	-0.23612999999999981	0	0	0
0.40471000000000013	-0.23194999999999991	0	0	0
0.40258999999999989	-0.22827999999999979	0	0	0
0.39933999999999997	-0.22555999999999979	0	0	0
0.39535999999999971	-0.22410999999999959	0	0	0
0.39111999999999991	-0.22410999999999959	0	0	0
0.38712999999999992	-0.22555999999999979	0	0	0
0.38389000000000001	-0.22827999999999979	0	0	0
0.38176999999999989	-0.23194999999999991	0	0	0
0.38102999999999992	-0.23612999999999981	0	0	0
0.38176999999999989	-0.24030000000000001	0	0	0
0.15061999999999989	-0.16528999999999969	0	0	0
0.14736999999999989	-0.16255999999999959	0	0	0
0.1433900000000001	-0.16110999999999989	0	0	0
0.1391499999999998	-0.16110999999999989	0	0	0
0.13517000000000001	-0.16255999999999959	0	0	0
0.13192000000000001	-0.16528999999999969	0	0	0
0.12979999999999989	-0.1689599999999998	0	0	0
0.1290599999999999	-0.17312999999999959	0	0	0
0.12979999999999989	-0.17730999999999991	0	0	0
0.13192000000000001	-0.18097999999999989	0	0	0
0.13517000000000001	-0.1837	0	0	0
0.1391499999999998	-0.1851499999999997	0	0	0
0.1433900000000001	-0.1851499999999997	0	0	0
0.14736999999999989	-0.1837	0	0	0
0.15061999999999989	-0.18097999999999989	0	0	0
0.15273999999999999	-0.17730999999999991	0	0	0
0.15346999999999991	-0.17312999999999959	0	0	0
0.15273999999999999	-0.1689599999999998	0	0	0
0.25789999999999969	-0.2439699999999996	0	0	0
0.26114999999999972	-0.2466999999999997	0	0	0
0.26512999999999998	-0.2481499999999999	0	0	0
0.26936999999999978	-0.2481499999999999	0	0	0
0.2733499999999997	-0.2466999999999997	0	0	0
0.27659999999999968	-0.2439699999999996	0	0	0
0.2787199999999998	-0.24030000000000001	0	0	0
0.27945999999999982	-0.23612999999999981	0	0	0
0.2787199999999998	-0.23194999999999991	0	0	0
0.27659999999999968	-0.22827999999999979	0	0	0
0.2733499999999997	-0.22555999999999979	0	0	0
0.26936999999999978	-0.22410999999999959	0	0	0
0.26512999999999998	-0.22410999999999959	0	0	0
0.26114999999999972	-0.22555999999999979	0	0	0
0.25789999999999969	-0.22827999999999979	0	0	0
0.25578000000000012	-0.23194999999999991	0	0	0
0.25504999999999972	-0.23612999999999981	0	0	0
0.25578000000000012	-0.24030000000000001	0	0	0
0.32088999999999979	-0.2439699999999996	0	0	0
0.32413999999999982	-0.2466999999999997	0	0	0
0.32811999999999969	-0.2481499999999999	0	0	0
0.33235999999999988	-0.2481499999999999	0	0	0
0.33634999999999993	-0.2466999999999997	0	0	0
0.33958999999999978	-0.2439699999999996	0	0	0
0.3417099999999999	-0.24030000000000001	0	0	0
0.34244999999999992	-0.23612999999999981	0	0	0
0.3417099999999999	-0.23194999999999991	0	0	0
0.33958999999999978	-0.22827999999999979	0	0	0
0.33634999999999993	-0.22555999999999979	0	0	0
0.33235999999999988	-0.22410999999999959	0	0	0
0.32811999999999969	-0.22410999999999959	0	0	0
0.32413999999999982	-0.22555999999999979	0	0	0
0.32088999999999979	-0.22827999999999979	0	0	0
0.31877999999999979	-0.23194999999999991	0	0	0
0.31803999999999982	-0.23612999999999981	0	0	0
0.31877999999999979	-0.24030000000000001	0	0	0
0.024629999999999701	-0.19678000000000001	0	0	0
0.021389999999999701	-0.1940599999999999	0	0	0
0.017399999999999801	-0.19260999999999981	0	0	0
0.01316	-0.19260999999999981	0	0	0
0.0091799999999997006	-0.1940599999999999	0	0	0
0.0059299999999997003	-0.19678000000000001	0	0	0
0.00381	-0.20045999999999969	0	0	0
0.0030799999999997002	-0.2046299999999999	0	0	0
0.00381	-0.20879999999999971	0	0	0
0.0059299999999997003	-0.21247999999999981	0	0	0
0.0091799999999997006	-0.21519999999999989	0	0	0
0.01316	-0.21664999999999959	0	0	0
0.017399999999999801	-0.21664999999999959	0	0	0
0.021389999999999701	-0.21519999999999989	0	0	0
0.024629999999999701	-0.21247999999999981	0	0	0
0.026749999999999802	-0.20879999999999971	0	0	0
0.027489999999999699	-0.2046299999999999	0	0	0
0.026749999999999802	-0.20045999999999969	0	0	0
0.037429999999999998	-0.21247999999999981	0	0	0
0.040680000000000001	-0.21519999999999989	0	0	0
0.044659999999999901	-0.21664999999999959	0	0	0
0.048899999999999701	-0.21664999999999959	0	0	0
0.052880000000000003	-0.21519999999999989	0	0	0
0.056129999999999999	-0.21247999999999981	0	0	0
0.0582500000000001	-0.20879999999999971	0	0	0
0.058979999999999998	-0.2046299999999999	0	0	0
0.0582500000000001	-0.20045999999999969	0	0	0
0.056129999999999999	-0.19678000000000001	0	0	0
0.052880000000000003	-0.1940599999999999	0	0	0
0.048899999999999701	-0.19260999999999981	0	0	0
0.044659999999999901	-0.19260999999999981	0	0	0
0.040680000000000001	-0.1940599999999999	0	0	0
0.037429999999999998	-0.19678000000000001	0	0	0
0.035309999999999897	-0.20045999999999969	0	0	0
0.034569999999999899	-0.2046299999999999	0	0	0
0.035309999999999897	-0.20879999999999971	0	0	0
-0.0068600000000001004	-0.19678000000000001	0	0	0
-0.0101100000000001	-0.1940599999999999	0	0	0
-0.01409	-0.19260999999999981	0	0	0
-0.0183300000000002	-0.19260999999999981	0	0	0
-0.022320000000000201	-0.1940599999999999	0	0	0
-0.0255600000000001	-0.19678000000000001	0	0	0
-0.027680000000000201	-0.20045999999999969	0	0	0
-0.028420000000000199	-0.2046299999999999	0	0	0
-0.027680000000000201	-0.20879999999999971	0	0	0
-0.0255600000000001	-0.21247999999999981	0	0	0
-0.022320000000000201	-0.21519999999999989	0	0	0
-0.0183300000000002	-0.21664999999999959	0	0	0
-0.01409	-0.21664999999999959	0	0	0
-0.0101100000000001	-0.21519999999999989	0	0	0
-0.0068600000000001004	-0.21247999999999981	0	0	0
-0.0047400000000000003	-0.20879999999999971	0	0	0
-0.0040100000000001003	-0.2046299999999999	0	0	0
-0.0047400000000000003	-0.20045999999999969	0	0	0
0.068929999999999894	-0.21247999999999981	0	0	0
0.072169999999999804	-0.21519999999999989	0	0	0
0.0761599999999997	-0.21664999999999959	0	0	0
0.080399999999999999	-0.21664999999999959	0	0	0
0.084379999999999802	-0.21519999999999989	0	0	0
0.087629999999999805	-0.21247999999999981	0	0	0
0.089739999999999903	-0.20879999999999971	0	0	0
0.090479999999999797	-0.2046299999999999	0	0	0
0.089739999999999903	-0.20045999999999969	0	0	0
0.087629999999999805	-0.19678000000000001	0	0	0
0.084379999999999802	-0.1940599999999999	0	0	0
0.080399999999999999	-0.19260999999999981	0	0	0
0.0761599999999997	-0.19260999999999981	0	0	0
0.072169999999999804	-0.1940599999999999	0	0	0
0.068929999999999894	-0.19678000000000001	0	0	0
0.0668099999999998	-0.20045999999999969	0	0	0
0.066069999999999796	-0.2046299999999999	0	0	0
0.0668099999999998	-0.20879999999999971	0	0	0
-0.37596000000000013	-0.20065999999999959	0	0	0
-0.37271000000000021	-0.20338999999999979	0	0	0
-0.36873000000000028	-0.20483999999999991	0	0	0
-0.36448999999999998	-0.20483999999999991	0	0	0
-0.36391000000000018	-0.2046299999999999	0	0	0
-0.3605000000000001	-0.20338999999999979	0	0	0
-0.35726000000000019	-0.20065999999999959	0	0	0
-0.35514000000000012	-0.19698999999999961	0	0	0
-0.3544000000000001	-0.1928199999999998	0	0	0
-0.35514000000000012	-0.18863999999999989	0	0	0
-0.35726000000000019	-0.18496999999999991	0	0	0
-0.3605000000000001	-0.1822499999999998	0	0	0
-0.36448999999999998	-0.18079999999999971	0	0	0
-0.36873000000000028	-0.18079999999999971	0	0	0
-0.37271000000000021	-0.1822499999999998	0	0	0
-0.37596000000000013	-0.18496999999999991	0	0	0
-0.37808000000000019	-0.18863999999999989	0	0	0
-0.37881000000000009	-0.1928199999999998	0	0	0
-0.37808000000000019	-0.19698999999999961	0	0	0
-0.057059999999999902	-0.21247999999999981	0	0	0
-0.053809999999999997	-0.21519999999999989	0	0	0
-0.049830000000000103	-0.21664999999999959	0	0	0
-0.045590000000000297	-0.21664999999999959	0	0	0
-0.041610000000000001	-0.21519999999999989	0	0	0
-0.038359999999999998	-0.21247999999999981	0	0	0
-0.0362400000000003	-0.20879999999999971	0	0	0
-0.0354999999999999	-0.2046299999999999	0	0	0
-0.0362400000000003	-0.20045999999999969	0	0	0
-0.038359999999999998	-0.19678000000000001	0	0	0
-0.041610000000000001	-0.1940599999999999	0	0	0
-0.045590000000000297	-0.19260999999999981	0	0	0
-0.049830000000000103	-0.19260999999999981	0	0	0
-0.053809999999999997	-0.1940599999999999	0	0	0
-0.057059999999999902	-0.19678000000000001	0	0	0
-0.059180000000000101	-0.20045999999999969	0	0	0
-0.059909999999999998	-0.2046299999999999	0	0	0
-0.059180000000000101	-0.20879999999999971	0	0	0
0.1191200000000001	-0.16528999999999969	0	0	0
0.1158700000000001	-0.16255999999999959	0	0	0
0.1118899999999998	-0.16110999999999989	0	0	0
0.10765	-0.16110999999999989	0	0	0
0.10366999999999971	-0.16255999999999959	0	0	0
0.1004199999999997	-0.16528999999999969	0	0	0
0.098299999999999998	-0.1689599999999998	0	0	0
0.097569999999999699	-0.17312999999999959	0	0	0
0.098299999999999998	-0.17730999999999991	0	0	0
0.1004199999999997	-0.18097999999999989	0	0	0
0.10366999999999971	-0.1837	0	0	0
0.10765	-0.1851499999999997	0	0	0
0.1118899999999998	-0.1851499999999997	0	0	0
0.1158700000000001	-0.1837	0	0	0
0.1191200000000001	-0.18097999999999989	0	0	0
0.1212399999999997	-0.17730999999999991	0	0	0
0.1219799999999997	-0.17312999999999959	0	0	0
0.1212399999999997	-0.1689599999999998	0	0	0
0.087629999999999805	-0.16528999999999969	0	0	0
0.084379999999999802	-0.16255999999999959	0	0	0
0.080399999999999999	-0.16110999999999989	0	0	0
0.0761599999999997	-0.16110999999999989	0	0	0
0.072169999999999804	-0.16255999999999959	0	0	0
0.068929999999999894	-0.16528999999999969	0	0	0
0.0668099999999998	-0.1689599999999998	0	0	0
0.066069999999999796	-0.17312999999999959	0	0	0
0.0668099999999998	-0.17730999999999991	0	0	0
0.068929999999999894	-0.18097999999999989	0	0	0
0.072169999999999804	-0.1837	0	0	0
0.0761599999999997	-0.1851499999999997	0	0	0
0.080399999999999999	-0.1851499999999997	0	0	0
0.084379999999999802	-0.1837	0	0	0
0.087629999999999805	-0.18097999999999989	0	0	0
0.089739999999999903	-0.17730999999999991	0	0	0
0.090479999999999797	-0.17312999999999959	0	0	0
0.089739999999999903	-0.1689599999999998	0	0	0
0.056129999999999999	-0.16528999999999969	0	0	0
0.052880000000000003	-0.16255999999999959	0	0	0
0.048899999999999701	-0.16110999999999989	0	0	0
0.044659999999999901	-0.16110999999999989	0	0	0
0.040680000000000001	-0.16255999999999959	0	0	0
0.037429999999999998	-0.16528999999999969	0	0	0
0.035309999999999897	-0.1689599999999998	0	0	0
0.034569999999999899	-0.17312999999999959	0	0	0
0.035309999999999897	-0.17730999999999991	0	0	0
0.037429999999999998	-0.18097999999999989	0	0	0
0.040680000000000001	-0.1837	0	0	0
0.044659999999999901	-0.1851499999999997	0	0	0
0.048899999999999701	-0.1851499999999997	0	0	0
0.052880000000000003	-0.1837	0	0	0
0.056129999999999999	-0.18097999999999989	0	0	0
0.0582500000000001	-0.17730999999999991	0	0	0
0.058979999999999998	-0.17312999999999959	0	0	0
0.0582500000000001	-0.1689599999999998	0	0	0
0.25789999999999969	-0.18097999999999989	0	0	0
0.26114999999999972	-0.1837	0	0	0
0.26512999999999998	-0.1851499999999997	0	0	0
0.26936999999999978	-0.1851499999999997	0	0	0
0.2733499999999997	-0.1837	0	0	0
0.27659999999999968	-0.18097999999999989	0	0	0
0.2787199999999998	-0.17730999999999991	0	0	0
0.27945999999999982	-0.17312999999999959	0	0	0
0.2787199999999998	-0.1689599999999998	0	0	0
0.27659999999999968	-0.16528999999999969	0	0	0
0.2733499999999997	-0.16255999999999959	0	0	0
0.26936999999999978	-0.16110999999999989	0	0	0
0.26512999999999998	-0.16110999999999989	0	0	0
0.26114999999999972	-0.16255999999999959	0	0	0
0.25789999999999969	-0.16528999999999969	0	0	0
0.25578000000000012	-0.1689599999999998	0	0	0
0.25504999999999972	-0.17312999999999959	0	0	0
0.25578000000000012	-0.17730999999999991	0	0	0
-0.038359999999999998	-0.16528999999999969	0	0	0
-0.041610000000000001	-0.16255999999999959	0	0	0
-0.045590000000000297	-0.16110999999999989	0	0	0
-0.049830000000000103	-0.16110999999999989	0	0	0
-0.053809999999999997	-0.16255999999999959	0	0	0
-0.057059999999999902	-0.16528999999999969	0	0	0
-0.059180000000000101	-0.1689599999999998	0	0	0
-0.059909999999999998	-0.17312999999999959	0	0	0
-0.059180000000000101	-0.17730999999999991	0	0	0
-0.057059999999999902	-0.18097999999999989	0	0	0
-0.053809999999999997	-0.1837	0	0	0
-0.049830000000000103	-0.1851499999999997	0	0	0
-0.045590000000000297	-0.1851499999999997	0	0	0
-0.041610000000000001	-0.1837	0	0	0
-0.038359999999999998	-0.18097999999999989	0	0	0
-0.0362400000000003	-0.17730999999999991	0	0	0
-0.0354999999999999	-0.17312999999999959	0	0	0
-0.0362400000000003	-0.1689599999999998	0	0	0
0.32088999999999979	-0.18097999999999989	0	0	0
0.32413999999999982	-0.1837	0	0	0
0.32811999999999969	-0.1851499999999997	0	0	0
0.33235999999999988	-0.1851499999999997	0	0	0
0.33634999999999993	-0.1837	0	0	0
0.33958999999999978	-0.18097999999999989	0	0	0
0.3417099999999999	-0.17730999999999991	0	0	0
0.34244999999999992	-0.17312999999999959	0	0	0
0.3417099999999999	-0.1689599999999998	0	0	0
0.33958999999999978	-0.16528999999999969	0	0	0
0.33634999999999993	-0.16255999999999959	0	0	0
0.33235999999999988	-0.16110999999999989	0	0	0
0.32811999999999969	-0.16110999999999989	0	0	0
0.32413999999999982	-0.16255999999999959	0	0	0
0.32088999999999979	-0.16528999999999969	0	0	0
0.31877999999999979	-0.1689599999999998	0	0	0
0.31803999999999982	-0.17312999999999959	0	0	0
0.31877999999999979	-0.17730999999999991	0	0	0
0.024629999999999701	-0.16528999999999969	0	0	0
0.021389999999999701	-0.16255999999999959	0	0	0
0.017399999999999801	-0.16110999999999989	0	0	0
0.01316	-0.16110999999999989	0	0	0
0.0091799999999997006	-0.16255999999999959	0	0	0
0.0059299999999997003	-0.16528999999999969	0	0	0
0.00381	-0.1689599999999998	0	0	0
0.0030799999999997002	-0.17312999999999959	0	0	0
0.00381	-0.17730999999999991	0	0	0
0.0059299999999997003	-0.18097999999999989	0	0	0
0.0091799999999997006	-0.1837	0	0	0
0.01316	-0.1851499999999997	0	0	0
0.017399999999999801	-0.1851499999999997	0	0	0
0.021389999999999701	-0.1837	0	0	0
0.024629999999999701	-0.18097999999999989	0	0	0
0.026749999999999802	-0.17730999999999991	0	0	0
0.027489999999999699	-0.17312999999999959	0	0	0
0.026749999999999802	-0.1689599999999998	0	0	0
-0.0255600000000001	-0.18097999999999989	0	0	0
-0.022320000000000201	-0.1837	0	0	0
-0.0183300000000002	-0.1851499999999997	0	0	0
-0.01409	-0.1851499999999997	0	0	0
-0.0101100000000001	-0.1837	0	0	0
-0.0068600000000001004	-0.18097999999999989	0	0	0
-0.0047400000000000003	-0.17730999999999991	0	0	0
-0.0040100000000001003	-0.17312999999999959	0	0	0
-0.0047400000000000003	-0.1689599999999998	0	0	0
-0.0068600000000001004	-0.16528999999999969	0	0	0
-0.0101100000000001	-0.16255999999999959	0	0	0
-0.01409	-0.16110999999999989	0	0	0
-0.0183300000000002	-0.16110999999999989	0	0	0
-0.022320000000000201	-0.16255999999999959	0	0	0
-0.0255600000000001	-0.16528999999999969	0	0	0
-0.027680000000000201	-0.1689599999999998	0	0	0
-0.028420000000000199	-0.17312999999999959	0	0	0
-0.027680000000000201	-0.17730999999999991	0	0	0
-0.35726000000000019	-0.16916999999999979	0	0	0
-0.35514000000000012	-0.16549999999999979	0	0	0
-0.3544000000000001	-0.16131999999999991	0	0	0
-0.35514000000000012	-0.15714999999999971	0	0	0
-0.35726000000000019	-0.15347999999999959	0	0	0
-0.3605000000000001	-0.15075	0	0	0
-0.36448999999999998	-0.14929999999999979	0	0	0
-0.36873000000000028	-0.14929999999999979	0	0	0
-0.37271000000000021	-0.15075	0	0	0
-0.37596000000000013	-0.15347999999999959	0	0	0
-0.37808000000000019	-0.15714999999999971	0	0	0
-0.37881000000000009	-0.16131999999999991	0	0	0
-0.37808000000000019	-0.16549999999999979	0	0	0
-0.37596000000000013	-0.16916999999999979	0	0	0
-0.37271000000000021	-0.1718899999999999	0	0	0
-0.36873000000000028	-0.17333999999999961	0	0	0
-0.36448999999999998	-0.17333999999999961	0	0	0
-0.36391000000000018	-0.17312999999999959	0	0	0
-0.3605000000000001	-0.1718899999999999	0	0	0
0.19491000000000011	-0.14947999999999961	0	0	0
0.19816000000000011	-0.15220999999999979	0	0	0
0.2021399999999999	-0.15365999999999991	0	0	0
0.2063799999999997	-0.15365999999999991	0	0	0
0.21035999999999999	-0.15220999999999979	0	0	0
0.21360999999999999	-0.14947999999999961	0	0	0
0.2157299999999997	-0.14580999999999961	0	0	0